  25
  -39.1264877000000       0.474263340406227      !md1
 C         -3.5020866859       -0.9789616658        0.0232785864
 C         -2.0879386001       -0.4808038067        0.0103455428
 C         -1.7972924677        0.8548774371       -0.0039515682
 C         -2.8111260668        1.9428482475       -0.0199927562
 C         -4.1732047859        1.3157970814        0.3469426175
 N         -4.4453215967        0.0695943992       -0.3457011483
 C         -0.8493389881       -1.1829730822        0.0204314742
 C          0.1638036104       -0.1828584453        0.0037647203
 N         -0.4374056441        1.0375657460       -0.0124838851
 C         -0.4892229936       -2.5297727037        0.0388908649
 C          0.8474028874       -2.8613260442        0.0399329876
 C          1.8446284462       -1.8825886378        0.0238686782
 C          1.4998274722       -0.5498513543        0.0058712576
 Br         2.8597641229        0.8150618891       -0.0150850365
 H         -3.7646809766       -1.3255456285        1.0315562885
 H         -3.6276693722       -1.8218116435       -0.6603973202
 H         -2.8624574685        2.3915249411       -1.0177657819
 H         -2.5534769866        2.7323432426        0.6884450287
 H         -4.9803544475        2.0147989371        0.1186282369
 H         -4.1946388085        1.1016565758        1.4188540307
 H         -4.3915589160        0.2301174230       -1.3470229608
 H          0.0419998095        1.9232194587       -0.0237058946
 H         -1.2490175542       -3.2955319555        0.0531980796
 H          1.1475240451       -3.8977594227        0.0540671738
 H          2.8841582988       -2.1713944638        0.0258168940
  25
  -39.1264874200000       0.474122839575451      !mtd14
 C         -3.5017967518       -0.9784288125       -0.0612103005
 C         -2.0877739492       -0.4805758887       -0.0322210820
 C         -1.7973014579        0.8548626428       -0.0011629498
 C         -2.8111893314        1.9426749524        0.0194573962
 C         -4.1708671536        1.3198026534       -0.3633461794
 N         -4.4475910791        0.0658536446        0.3132088029
 C         -0.8491056702       -1.1826486627       -0.0402146999
 C          0.1638393103       -0.1828209773       -0.0050145608
 N         -0.4375181134        1.0373687025        0.0202471355
 C         -0.4888021555       -2.5292006569       -0.0702024337
 C          0.8478032595       -2.8607704087       -0.0642800873
 C          1.8448299982       -1.8823017123       -0.0300822887
 C          1.4998763685       -0.5498221501       -0.0005984156
 Br         2.8595357497        0.8147205075        0.0459431514
 H         -3.6323063375       -1.8291489585        0.6116746004
 H         -3.7571872662       -1.3131853950       -1.0753050642
 H         -2.5487740496        2.7396127895       -0.6788555093
 H         -2.8692030462        2.3808331798        1.0215542804
 H         -4.1853478323        1.1179142416       -1.4377878923
 H         -4.9794369668        2.0163115149       -0.1323145747
 H         -4.4007288892        0.2149470471        1.3166579644
 H          0.0416733182        1.9228726931        0.0430183942
 H         -1.2484625638       -3.2947169364       -0.0985377025
 H          1.1480571131       -3.8970159000       -0.0869348628
 H          2.8843607753       -2.1710962779       -0.0268882646
  25
  -39.1237368200000       2.581086977623127E-002 !md3
 C         -3.4919649401       -0.9879838979        0.0192493098
 C         -2.0877721481       -0.4799827069        0.0018840316
 C         -1.7983361948        0.8548733946       -0.0172798532
 C         -2.8186443283        1.9337896173       -0.0362743279
 C         -4.1540669633        1.3094126840        0.3914141199
 N         -4.3815515107        0.0945200150       -0.3740336976
 C         -0.8498614672       -1.1823623161        0.0139749040
 C          0.1625933461       -0.1811961688       -0.0044756715
 N         -0.4399546007        1.0385874022       -0.0229606367
 C         -0.4870003150       -2.5285460110        0.0381267353
 C          0.8500496082       -2.8587022124        0.0430179947
 C          1.8461088817       -1.8789598242        0.0257021907
 C          1.4989800894       -0.5468264117        0.0022500704
 Br         2.8561337778        0.8185172608       -0.0199513321
 H         -3.7219438270       -1.3815869802        1.0299156522
 H         -3.6131298892       -1.8095560964       -0.6929811811
 H         -2.9135731509        2.3349136296       -1.0484454703
 H         -2.5471148589        2.7507590703        0.6345933868
 H         -4.9702253655        2.0042875065        0.1874065349
 H         -4.1258737912        1.1150755857        1.4785263996
 H         -5.3452045828       -0.2048092889       -0.2790880532
 H          0.0384566206        1.9246264417       -0.0466422052
 H         -1.2453236120       -3.2958897210        0.0524633333
 H          1.1512245601       -3.8948255091        0.0608964318
 H          2.8859993971       -2.1663514276        0.0306815445
  25
  -39.1237365300000       2.580295024209088E-002 !mtd4
 C         -3.4917315378       -0.9875902579       -0.0537216677
 C         -2.0876778439       -0.4798841821       -0.0215109251
 C         -1.7984570399        0.8547253350        0.0127303488
 C         -2.8188549270        1.9334986440        0.0352920607
 C         -4.1516618734        1.3134594260       -0.4065920183
 N         -4.3838050881        0.0909040706        0.3451408199
 C         -0.8496781687       -1.1821491023       -0.0315757601
 C          0.1625744953       -0.1812253476        0.0036706849
 N         -0.4401506455        1.0383227576        0.0296419677
 C         -0.4866337730       -2.5280499379       -0.0661033221
 C          0.8504418760       -2.8582014956       -0.0646524680
 C          1.8462872362       -1.8786957081       -0.0310594068
 C          1.4989824783       -0.5468283052        0.0026498679
 Br         2.8559186497        0.8181632513        0.0478284347
 H         -3.6176927221       -1.8167089503        0.6488565393
 H         -3.7149957451       -1.3701956802       -1.0700937485
 H         -2.5430146052        2.7565284559       -0.6263459765
 H         -2.9199518212        2.3253425314        1.0504819009
 H         -4.1169604465        1.1300648949       -1.4953892481
 H         -4.9690187236        2.0062891219       -0.2005521703
 H         -5.3468623386       -0.2074907950        0.2408274195
 H          0.0379583265        1.9240873275        0.0661352736
 H         -1.2448221880       -3.2952005494       -0.0932184112
 H          1.1517621347       -3.8941129808       -0.0903236032
 H          2.8862138899       -2.1660210897       -0.0315809184
